 &NAERAD
 /
 &NAMCT0
   LECMWF=.FALSE.,
 /
 &NAMDIM
   NPROMA=-24,
 /
 &NAMDYN
   LNHDYN=.TRUE.,
 /
 &NAMFA
   NVGRIB=123,
   NBITPG=24,
   NBITCS=16,
 /
 &NAMINI
   NSTEP=8,
 /
 &NAMKEPT
   USELESS='YES',
 /
 &NAMOBJ
   L_OOPS=.TRUE.,
 /
 &NAMOBS
   LOLDPP=.TRUE.,
 /
 &NAMRIP
   CSTOP='h1',
 /
